    6
energy=   -161.49856408
C      13.55883955    -13.12886657     -8.05627015
H      12.88818670    -13.96682051     -8.29748892
H      13.65113782    -13.10340522     -6.96038635
C       8.71145274    -12.34516453     11.90357722
H       8.02702032    -13.16000389     11.62479816
H       8.26359018    -11.41360427     11.52708914
    6
energy=   -167.58383672
C      10.29845684    -12.93815583      1.00954918
H      11.09037753    -13.27447215      0.31490973
H      11.92818995    -12.49462112      2.43070950
C      10.85751028    -12.69828846      2.32790272
H      10.66389622    -13.70495488      2.73462646
H      10.26177283    -12.00735354      2.92368831
