    5
energy=   -107.48954445
C      14.16545107    -11.11829569     -8.16708690
H       5.95821013    -18.99568948    -11.76089763
H       6.06229393    -18.22732484    -11.80388673
H      14.30030252    -11.07552669     -7.07616322
H      15.16289509    -11.27778494     -8.60274408
    5
energy=   -113.61352447
C      11.12981621    -14.13893673     -9.48216223
H      11.11122198    -15.21291178     -9.35037673
H      10.24605487    -13.82642244    -10.02293617
H      11.14923666    -13.65692987     -8.51348212
H      12.01282332    -13.85942094    -10.04182130
