    5
energy=   -113.61352447
C       9.01807707    -12.34262668     13.18782055
H       8.61656353    -12.78000504     12.28304276
H       8.70815983    -11.30809495     13.25669907
H       8.64891257    -12.88774011     14.04671772
H      10.09873433    -12.39458780     13.16482463
    5
energy=   -107.49094686
C       6.32768613    -15.77244644     13.02765759
H       5.90648917    -16.23501080     12.12280608
H      13.15318306     -6.44275541     13.47236705
H       5.93879792    -16.34261152     13.88428274
H      13.76429118     -6.92023044     13.43199150
