    8
energy=   -199.63288596
C      11.24606551    -11.11061169      2.41054674
H      11.09291838    -11.96042363      1.74893157
H      12.26888506    -10.76130187      2.28664384
C      10.98641330    -11.50467940      3.85693799
H       9.96368572    -11.85409559      3.98085429
H      10.57281470    -10.31309214      2.10386917
H      11.14003265    -10.65519971      4.51894460
H      11.65961247    -12.30250277      4.16304265
    8
energy=   -193.98526726
C      10.03820967    -11.64709607      3.12990712
H      10.27109263    -12.40378413      2.40704502
H      19.03591111     -7.56037876     -2.65281571
C       9.98528504    -11.97300949      4.56310628
H       8.99275937    -12.34824596      4.85146446
H       9.72780896    -10.68305792      2.77830260
H      10.17763570    -11.09234139      5.17563287
H      10.70172504    -12.75399437      4.81712754
