    8
energy=   -193.98496796
C      11.67490436    -12.76633491      2.62861170
H      10.83556144    -12.67276906      1.94197238
H      12.49748363    -12.15833925      2.22617269
C      11.30707258    -12.33695174      3.98611763
H       2.21558222    -20.82161943     10.49923836
H      10.48975212    -11.66293019      4.14866687
H      12.03034511    -13.79859217      2.62565380
H      11.92177271    -12.60754746      4.82249494
    8
energy=   -197.39001677
C      12.28111198    -11.67767198      2.14112057
H      11.52571053    -11.63993648      1.37334785
H      13.28487471    -11.88240259      1.80631720
C      11.99494161    -11.48509692      3.41153344
H       4.80739247    -19.85746950      8.32278146
H      10.99126860    -11.28013955      3.74648473
H       5.33682104    -19.48019759      7.89800268
H      12.75034092    -11.52217247      4.17933809
