    5
energy=   -113.61352447
C       8.99121928    -12.33632912     13.23535226
H       7.96766982    -12.62797206     13.43137922
H       9.00336371    -11.37730860     12.73417268
H       9.53035136    -12.26131009     14.17063702
H       9.46353693    -13.07864270     12.60525517
    5
energy=   -107.49094684
C      10.68230109    -11.58003036      9.28618192
H       5.85666194    -13.66521056     19.59123224
H      10.70709546    -10.61647260      8.75602087
H       6.54337026    -13.50408390     19.91609467
H      11.16671238    -12.31576507      8.62726675
