    5
energy=   -113.56399954
C      13.21926584    -12.01275945     -8.58321971
H      12.54567784    -12.85208645     -8.85262671
H      12.78849184    -11.05959145     -8.95291471
H      13.32876684    -11.96588145     -7.48023171
H      14.21412684    -12.17347845     -9.04710571
    5
energy=   -107.49094682
C      12.12529355     -8.60748520     -6.08627061
H      14.66732812    -17.77878604    -12.66288098
H      11.69740319     -7.65332287     -6.42775657
H      12.22378455     -8.53630694     -4.99294461
H      15.38251982    -17.48789624    -12.74624570
