    5
energy=   -107.48954445
H       8.01034891    -20.41329271    -11.84194836
H       8.72554061    -20.12240291    -11.92531308
C      10.12369448    -11.36789171     13.71517616
H      10.25854593    -11.32512271     14.80609984
H      11.12113851    -11.52738096     13.27951898
    5
energy=   -113.61352451
H       9.23685329    -15.90684464      3.30847377
H       9.94902882    -14.39765506      2.72695966
C       9.64785606    -14.95121396      3.60669513
H       8.89787728    -14.38890578      4.14742723
H      10.50765395    -15.11147168      4.24397768
