    5
energy=   -113.56399954
C       9.04183730    -12.31573719     13.22945461
H       8.36824930    -13.15506419     12.96004761
H       8.61106330    -11.36256919     12.85975961
H       9.15133830    -12.26885919     14.33244261
H      10.03669831    -12.47645619     12.76556861
    5
energy=   -107.49094680
C       5.28135428    -11.92809530     11.05323692
H       4.59692187    -12.74293466     10.77445786
H       4.83349172    -10.99653504     10.67674885
H      15.05895168    -12.91106660     17.15724026
H      15.43846711    -13.00005442     16.48558936
