    5
energy=   -113.56399954
C      13.21926584    -12.01275945     -8.58321971
H      12.54567784    -12.85208645     -8.85262671
H      12.78849184    -11.05959145     -8.95291471
H      13.32876684    -11.96588145     -7.48023171
H      14.21412684    -12.17347845     -9.04710571
    5
energy=   -107.49094680
C      15.14004847     -9.31437725    -11.42166123
H       9.88107645    -16.65651782     -4.19236794
H      14.73473867     -8.36550952    -11.80310922
H      10.21675259    -16.27664034     -3.60408199
H      16.12371310     -9.45075249    -11.89487817
