    8
energy=   -193.98525954
C      11.48126554    -11.22988851      1.81828990
H      10.87927019    -10.64237638      1.15369248
H       8.86735663    -20.14204266    -15.93748438
H      12.27304396    -11.82132186      1.40269449
C      11.12619274    -11.35166550      3.24032066
H      10.42917870    -12.18526246      3.40840063
H      10.63294485    -10.45040691      3.60305891
H      12.00643781    -11.55304144      3.85099448
    8
energy=   -199.63287145
C      11.00526670    -12.56029554     -0.42943399
H      10.23342735    -12.01234145     -0.96542725
H      10.87365662    -13.62112844     -0.63063435
H      11.97400835    -12.25597034     -0.81955498
C      10.91867446    -12.28378102      1.06445498
H       9.95269519    -12.59494321      1.45599428
H      11.04275923    -11.22185038      1.26481502
H      11.69518589    -12.82569510      1.59975419
