    5
energy=   -107.66061290
C      12.54654508    -11.90408195     -8.26954198
H      12.19749707    -12.81529721     -8.70225129
H      12.44529424    -10.98601399     -8.80459768
H      12.99665761    -11.91090454     -7.30169009
H      16.59899382    -12.95934468     20.02302178
    5
energy=   -107.49094690
C      12.52097326    -11.97034370     -8.30488150
H      14.33751886    -12.89148511      5.28034631
H      12.47109962    -10.96850559     -8.75650354
H      13.00011241    -11.85033326     -7.32195089
H      14.45528363    -12.89497489      6.04793018
