    5
energy=   -107.48954449
C       9.38134980    -13.43164224     13.75630862
H       8.71069695    -14.26959619     13.51508985
H       6.31868015     -3.63654096      9.17882048
H       9.47364807    -13.40618090     14.85219242
H       6.92978818     -4.11401610      9.13844487
    5
energy=   -113.61352447
C       8.16282900     -9.77157778     12.08816218
H       7.91274209    -10.74838752     11.69529053
H       7.25631304     -9.19925553     12.23585139
H       8.67657193     -9.88397807     13.03393337
H       8.80570722     -9.25477789     11.38761893
