    7
energy=   -183.27805198
C      10.95364778    -11.96887365      2.31882189
H      10.18144190    -11.67929912      1.59156359
H      11.87884118    -11.48780298      2.00204360
C      10.58240180    -11.56363225      3.68301991
H      11.06439339    -13.05053118      2.24461638
H      10.81432799    -10.58032207      4.04170433
H       9.97105861    -12.19884738      4.29302225
    7
energy=   -180.82413749
C      11.55370831    -10.41359804      5.07350864
H       9.37939918    -15.84790730     -4.54175989
H      12.21279079    -10.03312854      4.32867113
C      11.01245430    -10.03884339      6.18037642
H       9.76999822    -16.45389180     -4.25317558
H      11.16904722     -9.06035803      6.64468578
H      10.34873329    -10.68156557      6.74248610
