    5
energy=   -113.61352451
H       8.11041182    -19.65818291     -7.28689386
H       8.82258743    -18.14899214     -7.86840802
C       8.52141421    -18.70255162     -6.98867365
H       7.77143636    -18.14024316     -6.44794224
H       9.38121013    -18.86281055     -6.35138944
    5
energy=   -107.49094680
H       9.68925414    -23.58142824     -6.09423830
H       6.16655926    -12.27521307     -9.25412619
C      10.08805446    -22.59778324     -5.80522286
H       5.70462387    -12.27136784     -8.62989335
H      10.95856819    -22.78698797     -5.15982646
