    5
energy=   -107.48954442
C       9.67293659    -11.27909685     13.63587608
H       4.05446357    -20.35138917     10.11399788
H       9.24504624    -10.32493452     13.29439012
H       9.77142760    -11.20791859     14.72920208
H       4.76965527    -20.06049938     10.03063316
    5
energy=   -113.61352447
C       7.50269693    -14.64478426     12.36081280
H       6.47914747    -14.93642721     12.55683977
H       7.51484135    -13.68576375     11.85963323
H       8.04182901    -14.56976523     13.29609756
H       7.97501457    -15.38709784     11.73071572
