    5
energy=   -107.48954442
C       8.67785642    -12.35089875     12.05843941
H       7.99342400    -13.16573810     11.77966035
H       8.22999385    -11.41933849     11.68195134
H      11.39652116    -12.08333726     22.98715826
H      11.77603659    -12.17232509     22.31550736
    5
energy=   -113.61352450
C       9.61477050    -12.23832737     16.16455589
H       9.30490567    -13.12106932     15.62066959
H       9.53919663    -11.37246094     15.51986543
H       8.97515650    -12.10287961     17.02692037
H      10.63980300    -12.35690052     16.49070539
