    5
energy=   -113.61352314
C      12.93394913    -11.84503467     -5.75907105
H      13.68080971    -11.06435342     -5.69855515
H      12.87505478    -12.21059662     -6.77604577
H      13.20720877    -12.65787989     -5.09919301
H      11.97205123    -11.44748300     -5.46270133
    5
energy=   -107.66061287
C      12.32750115    -10.04247708     -7.22263775
H      13.20440609     -9.50918593     -6.92933696
H      12.36153582    -10.70817182     -8.05635185
H      15.35912557    -19.05560977      0.09512336
H      11.41650460     -9.90990334     -6.68236291
