    5
energy=   -107.48954446
H      10.32564044     -2.77084828    -12.89994985
H      10.93674846     -3.24832343    -12.94032546
C      10.25043586    -12.15132674     13.08490962
H      10.81537862    -12.09383998     14.02706882
H      10.74862160    -12.91019057     12.46356778
    5
energy=   -113.61352134
H       9.77400789     -8.15785926      2.26207175
H      11.44868136     -8.68231823      2.05857845
C      10.61536611     -8.63497253      2.74723591
H      10.90045386     -8.06213514      3.62011088
H      10.33831526     -9.63724449      3.04727274
