    5
energy=   -107.48954442
C       9.67293660    -11.27909684     13.63587608
H       4.05446358    -20.35138916     10.11399788
H       9.24504625    -10.32493451     13.29439012
H       9.77142761    -11.20791858     14.72920208
H       4.76965528    -20.06049937     10.03063316
    5
energy=   -113.61352447
C       7.50269694    -14.64478425     12.36081280
H       6.47914748    -14.93642720     12.55683977
H       7.51484136    -13.68576374     11.85963323
H       8.04182902    -14.56976522     13.29609756
H       7.97501458    -15.38709783     11.73071572
