    5
energy=   -107.48954446
C       9.92770833    -11.47815681     13.61904347
H       2.20049139    -18.90283152     10.23648869
H       2.30457518    -18.13446688     10.19349958
H      10.06255978    -11.43538781     14.70996715
H      10.92515236    -11.63764606     13.18338629
    5
energy=   -113.61352447
C       7.08408281    -14.31771007     12.38847063
H       7.06203755    -15.39185472     12.51832821
H       6.20154236    -14.00143694     11.84788818
H       7.10461883    -13.83749827     13.35801882
H       7.96820555    -14.03998935     11.82967992
