    5
energy=   -107.48954445
H       8.01034892    -20.41329272    -11.84194835
H       8.72554062    -20.12240292    -11.92531307
C      10.12369447    -11.36789172     13.71517616
H      10.25854592    -11.32512272     14.80609984
H      11.12113850    -11.52738097     13.27951898
    5
energy=   -113.61352451
H       9.23685371    -15.90684533      3.30847447
H       9.94902932    -14.39765455      2.72696031
C       9.64785610    -14.95121403      3.60669468
H       8.89787825    -14.38890558      4.14742608
H      10.50765202    -15.11147296      4.24397889
