    9
energy=   -210.34010275
C      10.66087804    -12.36981840      1.44782233
H      11.01630146    -13.34812074      1.13185158
H       9.78383942    -12.11729341      0.85600485
H      11.43814209    -11.63906536      1.23567701
C      10.32236243    -12.37625860      2.93109744
H       9.54467309    -13.10658285      3.14314305
H       9.96744713    -11.39782080      3.24717285
H      11.19928511    -12.62934007      3.52288387
H      10.02097545    -12.46133449     13.73460051
    9
energy=   -210.34010235
C      10.40517664    -11.45087935      5.23992787
H      12.81978058    -16.38189081     -6.12560653
H       9.72158040    -10.63012690      5.44549217
H      11.37536915    -11.03125790      4.98361254
C       9.87828538    -12.31510360      4.10397078
H       8.90832870    -12.73529900      4.36068873
H       9.76645355    -11.72716050      3.19562001
H      10.56237155    -13.13539863      3.89805874
H      10.51654496    -12.03850263      6.14847119
