    5
energy=   -107.48954459
C      12.53742673    -11.34586696     -9.28072075
H      12.40825739    -16.78705894      0.50892495
H      12.48755309    -10.34402886     -9.73234278
H      13.01656588    -11.22585653     -8.29779013
H      12.52602216    -16.79054872      1.27650883
    5
energy=   -113.61352174
C      12.59517128    -13.29858506     -5.10522423
H      12.48276586    -14.37282309     -5.03934411
H      11.73923991    -12.87731836     -5.61634693
H      13.49675283    -13.06293275     -5.65563258
H      12.66189593    -12.88170097     -4.10887193
