    5
energy=   -113.61352447
C       8.99121928    -12.33632911     13.23535228
H       7.96766833    -12.62796277     13.43138504
H       9.00336883    -11.37731026     12.73416955
H       9.53035709    -12.26131185     14.17063391
H       9.46352742    -13.07864883     12.60525536
    5
energy=   -107.49094679
C      12.52190906    -14.66595060     14.30061611
H       2.93607775     -8.76596237     11.63025865
H       3.39120767     -8.21637179     11.32387219
H      13.08685182    -14.60846383     15.24277531
H      13.02009480    -15.42481442     13.67927427
