    8
energy=   -199.63288727
C      10.75983617    -12.27192817      4.18026691
H      11.17776608    -13.25968056      4.36158720
H      11.70442482    -12.01114809      2.25592649
C      10.70683686    -11.97845286      2.68832533
H      10.08813566    -12.71159615      2.17557403
H      10.28800200    -10.99110683      2.50682612
H       9.76235733    -12.23834981      4.61285535
H      11.37949187    -11.53946184      4.69288804
    8
energy=   -193.98526728
C      11.14783675    -13.25613901      4.95559489
H      11.54707029    -14.21988865      5.30324296
H      12.06057373    -12.81716696      2.98325450
C      11.17995986    -13.16192899      3.48822548
H      10.37191974    -13.54880978      2.89937740
H       7.67205091     -4.33378220     -2.90361087
H      10.12814546    -13.18452423      5.33358699
H      11.75929408    -12.47948486      5.41457811
