    8
energy=   -199.63288716
C      11.07024274    -12.53890261      2.45742079
H      10.22425980    -12.18916992      1.86992924
H      11.97130921    -12.06414709      2.07519231
C      10.87352807    -12.20789098      3.92930271
H      11.16386484    -13.61343754      2.31572347
H      10.77980055    -11.13339857      4.07100575
H       9.97264173    -12.68275476      4.31151906
H      11.71963610    -12.55740916      4.51683280
    8
energy=   -193.98526728
C      10.41215669    -12.37028647      1.33547177
H       9.63995012    -12.08071039      0.60821482
H      11.33734979    -11.88921511      1.01869363
C      10.04091199    -11.96504803      2.69967101
H      10.52290226    -13.45194384      1.26126382
H      10.27283853    -10.98173863      3.05835734
H       9.42956939    -12.60026449      3.30967255
H      16.11960460    -13.64790391     12.25558159
