    8
energy=   -194.31328165
C      13.55877833    -13.12866451     -8.05636571
H      12.88812548    -13.96661846     -8.29758447
H      13.65107660    -13.10320317     -6.96048190
C       9.04183731    -12.31573718     13.22945461
H       8.36824931    -13.15506418     12.96004761
H       8.61106331    -11.36256918     12.85975961
H       9.15133831    -12.26885918     14.33244261
H      10.03669832    -12.47645618     12.76556861
    8
energy=   -199.63288715
C      10.76172757    -12.88766083      4.61816320
H       9.91574463    -12.53792814      4.03067165
H      11.66279403    -12.41290531      4.23593472
C      10.56501290    -12.55664920      6.09004512
H      10.85534967    -13.96219576      4.47646588
H      10.47128537    -11.48215678      6.23174816
H       9.66412656    -13.03151298      6.47226147
H      11.41112092    -12.90616738      6.67757520
