    8
energy=   -199.63288727
C      10.75983216    -12.27193335      4.18027180
H      11.17776318    -13.25968489      4.36159415
H      11.70442727    -12.01115339      2.25593457
C      10.70683774    -11.97845891      2.68832988
H      10.08813916    -12.71160319      2.17557686
H      10.28800241    -10.99111346      2.50682854
H       9.76235170    -12.23835654      4.61285659
H      11.37948474    -11.53946567      4.69289481
    8
energy=   -193.98526728
C      11.14783132    -13.25614333      4.95560172
H      11.54706539    -14.21989205      5.30325173
H      12.06057414    -12.81717145      2.98326402
C      11.17995904    -13.16193421      3.48823237
H      10.37192129    -13.54881633      2.89938190
H       7.67206286     -4.33379511     -2.90362162
H      10.12813868    -13.18453001      5.33359046
H      11.75928585    -12.47948785      5.41458644
