    5
energy=   -113.56399954
C      13.21926584    -12.01275945     -8.58321971
H      12.54567784    -12.85208645     -8.85262671
H      12.78849184    -11.05959145     -8.95291471
H      13.32876684    -11.96588145     -7.48023171
H      14.21412684    -12.17347845     -9.04710571
    5
energy=   -107.49094676
C      14.31323800    -15.41803386    -11.08016865
H      13.66516589    -16.26128252    -11.36134985
H      11.29781155     -6.19793421     -4.77751373
H      11.52940397     -6.58642137     -4.14623851
H      15.29070986    -15.60012536    -11.55082784
