    5
energy=   -107.48954441
C      13.75077487    -13.24403772     -8.31973737
H      13.10270276    -14.08728637     -8.60091857
H       9.10970109     -2.51890581    -10.71200425
H       9.34129351     -2.90739297    -10.08072903
H      14.72824673    -13.42612921     -8.79039656
    5
energy=   -113.61352447
C      12.00653598     -9.23673204     -9.30075950
H      11.43449634    -10.13765059     -9.12141271
H      11.72312088     -8.81356278    -10.25561008
H      11.80665286     -8.52007413     -8.51489459
H      13.06191287     -9.47573278     -9.31110931
