    8
energy=   -199.63288716
C      11.07024336    -12.53890414      2.45742119
H      10.22426066    -12.18917265      1.86992849
H      11.97131011    -12.06414913      2.07519260
C      10.87352746    -12.20788949      3.92930231
H      11.16386569    -13.61343931      2.31572625
H      10.77980025    -11.13339667      4.07100278
H       9.97264072    -12.68275232      4.31151867
H      11.71963462    -12.55740688      4.51683405
    8
energy=   -193.98526728
C      10.41215866    -12.37028985      1.33547113
H       9.63995279    -12.08071531      0.60821282
H      11.33735207    -11.88921918      1.01869284
C      10.04091269    -11.96504844      2.69966915
H      10.52290428    -13.45194738      1.26126561
H      10.27283888    -10.98173827      3.05835357
H       9.42956950    -12.60026358      3.30967149
H      16.11959431    -13.64788824     12.25558965
