    5
energy=   -113.61352447
C      13.20287325    -11.98525983     -8.62789684
H      12.63072431    -12.88655311     -8.45079566
H      12.91832044    -11.55877356     -9.58093144
H      13.00434622    -11.27116934     -7.83935551
H      14.25814078    -12.22463526     -8.64049222
    5
energy=   -107.66061289
C      10.86272705    -11.45447810     -8.59995712
H      10.63205328    -12.48085734     -8.41906641
H      10.93295115    -11.09170173     -9.60138010
H      11.02294751    -10.79082321     -7.77942211
H      22.56372607    -14.10853070     -8.73964601
