    5
energy=   -107.48954459
C      12.53742675    -11.34586697     -9.28072074
H      12.40825739    -16.78705896      0.50892496
H      12.48755310    -10.34402887     -9.73234277
H      13.01656589    -11.22585654     -8.29779012
H      12.52602216    -16.79054874      1.27650884
    5
energy=   -113.61352174
C      12.59517129    -13.29858507     -5.10522422
H      12.48276586    -14.37282311     -5.03934410
H      11.73923992    -12.87731837     -5.61634692
H      13.49675284    -13.06293276     -5.65563257
H      12.66189594    -12.88170098     -4.10887192
