    5
energy=   -113.56399954
C      13.21926585    -12.01275946     -8.58321970
H      12.54567785    -12.85208646     -8.85262670
H      12.78849185    -11.05959146     -8.95291470
H      13.32876685    -11.96588146     -7.48023170
H      14.21412685    -12.17347846     -9.04710570
    5
energy=   -107.49094676
C      14.31323801    -15.41803387    -11.08016864
H      13.66516590    -16.26128253    -11.36134984
H      11.29781156     -6.19793422     -4.77751372
H      11.52940398     -6.58642138     -4.14623850
H      15.29070987    -15.60012537    -11.55082783
