    5
energy=   -113.56399954
C      13.21926585    -12.01275946     -8.58321970
H      12.54567785    -12.85208646     -8.85262670
H      12.78849185    -11.05959146     -8.95291470
H      13.32876685    -11.96588146     -7.48023170
H      14.21412685    -12.17347846     -9.04710570
    5
energy=   -107.49094691
C      11.29848316    -14.71114174     -5.74477821
H      10.62783031    -15.54909569     -5.98599698
H      16.08406321     -7.32020230    -13.24802668
H      11.39078143    -14.68568039     -4.64889441
H      16.69517123     -7.79767744    -13.28840229
