    5
energy=   -107.48954446
H       6.03485160    -18.95035732    -11.88950821
H       6.13893539    -18.18199268    -11.93249731
C       9.98788879    -11.42139956     13.64552856
H      10.12274024    -11.37863056     14.73645225
H      10.98533282    -11.58088881     13.20987138
    5
energy=   -113.61351627
H       8.59111840    -15.31882590      3.18663709
H       8.50733375    -13.61141115      2.73410716
C       8.65392555    -14.30269126      3.55383231
H       7.88852996    -14.14190783      4.30162528
H       9.62884101    -14.13843269      3.99364479
