    5
energy=   -113.61352314
C      12.93394914    -11.84503468     -5.75907104
H      13.68080969    -11.06435341     -5.69855512
H      12.87505478    -12.21059658     -6.77604578
H      13.20720881    -12.65787993     -5.09919305
H      11.97205123    -11.44748306     -5.46270129
    5
energy=   -107.66061287
C      12.32750108    -10.04247678     -7.22263770
H      13.20440607     -9.50918564     -6.92933682
H      12.36153585    -10.70817173     -8.05635169
H      15.35912592    -19.05561000      0.09512295
H      11.41650454     -9.90990326     -6.68236268
