    5
energy=   -107.48954441
C      13.71708900    -13.16597260     -8.33633361
H      13.06901689    -14.00922126     -8.61751481
H       9.34411166     -3.06213924    -10.59651569
H       9.57570408     -3.45062640     -9.96524047
H      14.69456086    -13.34806409     -8.80699280
    5
energy=   -113.61352447
C      12.08008883     -9.40718637     -9.26452178
H      11.50793996    -10.30847858     -9.08741467
H      11.79553925     -8.98070959    -10.21756159
H      11.88155789     -8.69308839     -8.47598834
H      13.13535672     -9.64656068     -9.27711087
