    8
energy=   -194.31328153
C      14.00858568    -11.01321815     -8.45681048
H      13.60327588    -10.06435042     -8.83825847
H      14.99225031    -11.14959339     -8.93002742
C       9.04183731    -12.31573718     13.22945461
H       8.36824931    -13.15506418     12.96004761
H       8.61106331    -11.36256918     12.85975961
H       9.15133831    -12.26885918     14.33244261
H      10.03669832    -12.47645618     12.76556861
    8
energy=   -193.98525954
C      11.48202420    -11.55170285      2.69874783
H      10.88002885    -10.96419072      2.03415041
H      12.27380261    -12.14313620      2.28315242
C      11.12695140    -11.67347984      4.12077859
H      10.42993735    -12.50707680      4.28885856
H      10.63370351    -10.77222126      4.48351684
H       8.97965385    -12.31918515     15.28151933
H      12.00719647    -11.87485579      4.73145241
