    5
energy=   -107.48954446
C       9.92770833    -11.47815681     13.61904347
H       2.20049139    -18.90283152     10.23648869
H       2.30457518    -18.13446688     10.19349958
H      10.06255978    -11.43538781     14.70996715
H      10.92515236    -11.63764606     13.18338629
    5
energy=   -107.66061291
C       8.85009286    -12.90954074     13.19978306
H       8.08855650    -13.57464332     12.85759772
H       0.01997261    -19.95029092      9.14316717
H       8.77917823    -12.47108123     14.17041457
H       9.68268711    -12.68293311     12.57142256
