    5
energy=   -113.56399954
C      13.21926585    -12.01275946     -8.58321970
H      12.54567785    -12.85208646     -8.85262670
H      12.78849185    -11.05959146     -8.95291470
H      13.32876685    -11.96588146     -7.48023170
H      14.21412685    -12.17347846     -9.04710570
    5
energy=   -107.49094682
C      12.12529356     -8.60748521     -6.08627060
H      14.66732813    -17.77878605    -12.66288097
H      11.69740320     -7.65332288     -6.42775656
H      12.22378456     -8.53630695     -4.99294460
H      15.38251983    -17.48789625    -12.74624569
