    7
energy=   -183.27805198
C      10.95364667    -11.96887188      2.31882283
H      10.18144009    -11.67929579      1.59156589
H      11.87883976    -11.48780052      2.00204470
C      10.58240197    -11.56363344      3.68302208
H      11.06439223    -13.05052924      2.24461488
H      10.81432851    -10.58032403      4.04170840
H       9.97105936    -12.19884990      4.29302362
    7
energy=   -180.82413749
C      11.55370068    -10.41360335      5.07351358
H       9.37939163    -15.84789075     -4.54176583
H      12.21279153    -10.03313262      4.32868415
C      11.01244166    -10.03885397      6.18038071
H       9.76999095    -16.45387586     -4.25318320
H      11.16903873     -9.06037358      6.64469910
H      10.34871114    -10.68157526      6.74248034
