    5
energy=   -107.48954445
C      14.15702743    -11.12624019     -8.17079409
H       6.01682795    -18.94040601    -11.73510024
H       6.12091174    -18.17204136    -11.77808935
H      14.29187888    -11.08347118     -7.07987041
H      15.15447146    -11.28572944     -8.60645127
    5
energy=   -113.61352447
C      11.14820886    -14.12158961     -9.47406768
H      11.12915751    -15.19558804     -9.34253750
H      10.26460866    -13.80857742    -10.01481670
H      11.16777784    -13.63982103     -8.50527201
H      12.03136453    -13.84231215    -10.03361136
