    5
energy=   -113.61352447
C       8.99121929    -12.33632910     13.23535228
H       7.96766834    -12.62796276     13.43138504
H       9.00336884    -11.37731025     12.73416955
H       9.53035710    -12.26131184     14.17063391
H       9.46352743    -13.07864882     12.60525536
    5
energy=   -107.49094679
C      12.52190907    -14.66595059     14.30061611
H       2.93607776     -8.76596236     11.63025865
H       3.39120768     -8.21637178     11.32387219
H      13.08685183    -14.60846382     15.24277531
H      13.02009481    -15.42481441     13.67927427
