    5
energy=   -113.56399954
C      13.21926584    -12.01275945     -8.58321971
H      12.54567784    -12.85208645     -8.85262671
H      12.78849184    -11.05959145     -8.95291471
H      13.32876684    -11.96588145     -7.48023171
H      14.21412684    -12.17347845     -9.04710571
    5
energy=   -107.49094691
C      11.29848315    -14.71114173     -5.74477822
H      10.62783030    -15.54909568     -5.98599699
H      16.08406320     -7.32020229    -13.24802669
H      11.39078142    -14.68568038     -4.64889442
H      16.69517122     -7.79767743    -13.28840230
