    5
energy=   -107.48954444
C      13.85036514    -10.97611912     -8.17679824
H       8.23189211    -20.04841144    -11.69867643
H      13.42247479    -10.02195679     -8.51828419
H      13.94885614    -10.90494086     -7.08347223
H       8.94708381    -19.75752165    -11.78204115
    5
energy=   -113.61352447
C      11.68012549    -14.34180653     -9.45186155
H      10.65657602    -14.63344948     -9.25583458
H      11.69226991    -13.38278602     -9.95304112
H      12.21925757    -14.26678750     -8.51657679
H      12.15244313    -15.08412011    -10.08195863
