    4
energy=    -96.95339760
C       9.57590770    -11.90634882     13.47699038
H       8.81437134    -12.57145140     13.13480503
H       9.50499307    -11.46788932     14.44762188
H      10.40850195    -11.67974119     12.84862987
    4
energy=    -91.45790217
C       9.74618356    -12.95867617     11.14750518
H       9.02912420    -13.65426780     10.68644970
H       8.97771781     -8.20937163     21.66080101
H      10.55074848    -12.80311529     10.41329125
