   10
energy=   -227.12799909
C      13.21926585    -12.01275946     -8.58321970
H      12.54567785    -12.85208646     -8.85262670
H      12.78849185    -11.05959146     -8.95291470
H      13.32876685    -11.96588146     -7.48023170
H      14.21412685    -12.17347846     -9.04710570
C       9.04183730    -12.31573719     13.22945461
H       8.36824930    -13.15506419     12.96004761
H       8.61106330    -11.36256919     12.85975961
H       9.15133830    -12.26885919     14.33244261
H      10.03669831    -12.47645619     12.76556861
