    5
energy=   -113.56399954
C       9.04183730    -12.31573719     13.22945461
H       8.36824930    -13.15506419     12.96004761
H       8.61106330    -11.36256919     12.85975961
H       9.15133830    -12.26885919     14.33244261
H      10.03669831    -12.47645619     12.76556861
    5
energy=   -107.49094684
C       7.12105461    -15.01411947     16.06789614
H       6.45040176    -15.85207342     15.82667737
H      11.90663465     -7.62318003      8.56464767
H       7.21335288    -14.98865813     17.16377994
H      12.51774268     -8.10065517      8.52427206
