    8
energy=   -194.31328155
C      13.21926585    -12.01275946     -8.58321970
H      12.54567785    -12.85208646     -8.85262670
H      12.78849185    -11.05959146     -8.95291470
H      13.32876685    -11.96588146     -7.48023170
H      14.21412685    -12.17347846     -9.04710570
C       9.99887400    -13.08127821     13.17770664
H       9.75595657    -14.08539225     12.79971819
H      10.51890700    -13.22197818     14.13681995
    8
energy=   -193.98419149
C      11.99824897    -12.79903953      0.50988060
H      11.27421857    -13.41393791     -0.01879983
H      12.91123276    -10.71964039    -10.65205494
H      11.93356333    -11.77368707      0.13391439
H      13.00340055    -13.15145374      0.24437346
C      11.78636327    -12.84456172      1.96444719
H      11.10769218    -13.54566911      2.40656126
H      12.35534650    -12.20445683      2.60982315
