    9
energy=   -210.51739713
C      12.50002391    -11.82583517     -8.61950645
H      12.26935014    -12.85221440     -8.43861574
H      12.57024801    -11.46305880     -9.62092944
H      12.66024437    -11.16218028     -7.79897144
C       9.04183730    -12.31573719     13.22945461
H       8.36824930    -13.15506419     12.96004761
H       8.61106330    -11.36256919     12.85975961
H       9.15133830    -12.26885919     14.33244261
H      10.03669831    -12.47645619     12.76556861
    9
energy=   -210.34010275
C      10.81361869    -12.03792040      1.44666615
H      11.16904211    -13.01622275      1.13069541
H       9.93658007    -11.78539542      0.85484868
H      11.59088274    -11.30716737      1.23452084
C      10.47510307    -12.04436060      2.92994126
H       9.69741374    -12.77468485      3.14198688
H      10.12018778    -11.06592280      3.24601667
H      11.35202575    -12.29744207      3.52172769
H      10.05419633    -12.55286925     14.16284979
