    5
energy=   -113.56399954
C      13.21926584    -12.01275945     -8.58321971
H      12.54567784    -12.85208645     -8.85262671
H      12.78849184    -11.05959145     -8.95291471
H      13.32876684    -11.96588145     -7.48023171
H      14.21412684    -12.17347845     -9.04710571
    5
energy=   -107.66061287
C      12.98240904    -12.11415909    -10.96904475
H      12.33223835    -12.95476795    -10.86885547
H      12.58003526    -11.12548636    -10.97120179
H      14.16671779    -11.60714989      0.96032908
H      14.03492879    -12.26223355    -11.06732609
