    5
energy=   -113.61352447
C       8.99858712    -12.28194002     13.23230919
H       8.74850021    -13.25874975     12.83943755
H       8.09207117    -11.70961776     13.37999841
H       9.51233006    -12.39434030     14.17808038
H       9.64146534    -11.76514013     12.53176595
    5
energy=   -107.49094676
C       9.91893502    -16.08403522     15.16230857
H       9.67601759    -17.08814926     14.78432012
H       7.13909739     -5.99423541     10.23313671
H      10.43896803    -16.22473518     16.12142188
H       7.81993590     -6.01863319      9.86040437
