    5
energy=   -113.61352447
C      13.20287326    -11.98525984     -8.62789683
H      12.63072432    -12.88655312     -8.45079565
H      12.91832045    -11.55877357     -9.58093143
H      13.00434623    -11.27116935     -7.83935550
H      14.25814079    -12.22463527     -8.64049221
    5
energy=   -107.66061289
C      10.86272706    -11.45447811     -8.59995711
H      10.63205329    -12.48085735     -8.41906640
H      10.93295116    -11.09170174     -9.60138009
H      11.02294752    -10.79082322     -7.77942210
H      22.56372608    -14.10853071     -8.73964600
