    8
energy=   -193.98496796
C      11.67490450    -12.76633489      2.62861173
H      10.83556169    -12.67276909      1.94197227
H      12.49748378    -12.15833914      2.22617287
C      11.30707243    -12.33695179      3.98611760
H       2.21558221    -20.82161944     10.49923836
H      10.48975191    -11.66293027      4.14866671
H      12.03034535    -13.79859211      2.62565388
H      11.92177245    -12.60754746      4.82249502
    8
energy=   -197.39001677
C      12.28111260    -11.67767180      2.14112033
H      11.52570933    -11.63993832      1.37334931
H      13.28487481    -11.88240163      1.80631493
C      11.99494493    -11.48509533      3.41153360
H       4.80739259    -19.85746953      8.32278156
H      10.99127244    -11.28013876      3.74648693
H       5.33682117    -19.48019762      7.89800279
H      12.75034607    -11.52216887      4.17933655
