    5
energy=   -107.48954448
C       9.16762406    -11.20604002     13.95924597
H       7.37830773    -20.91138466      8.58486845
H       9.07345138    -10.31502762     13.32100037
H       8.51008808    -11.04458043     14.82625594
H       7.96492263    -20.57557300      8.96720235
    5
energy=   -113.61352447
C       8.41887703    -14.81053901     11.93170551
H       7.52758046    -15.16135318     11.42806314
H       8.75878598    -13.89425435     11.46701940
H       8.19477120    -14.62473921     12.97396449
H       9.19437921    -15.56172010     11.85782081
