    5
energy=   -107.48954446
C       9.98802253    -11.42127343     13.64558742
H       1.78078160    -19.29866722     10.05177670
H       1.88486539    -18.53030258     10.00878759
H      10.12287398    -11.37850443     14.73651110
H      10.98546656    -11.58076268     13.20993024
    5
energy=   -113.61352447
C       6.95238761    -14.44191438     12.33051206
H       6.93379351    -15.51588944     12.46229761
H       6.06862624    -14.12940023     11.78973810
H       6.97180808    -13.95990761     13.29919222
H       7.83539478    -14.16239865     11.77085304
