    5
energy=   -113.61352447
C       9.01807708    -12.34262667     13.18782055
H       8.61656354    -12.78000503     12.28304276
H       8.70815984    -11.30809494     13.25669907
H       8.64891258    -12.88774010     14.04671772
H      10.09873434    -12.39458779     13.16482463
    5
energy=   -107.49094686
C       6.32768614    -15.77244643     13.02765759
H       5.90648918    -16.23501079     12.12280608
H      13.15318307     -6.44275540     13.47236705
H       5.93879793    -16.34261151     13.88428274
H      13.76429119     -6.92023043     13.43199150
