    6
energy=   -170.64975432
C      11.86728616    -12.71439897      2.99695806
H      11.11188289    -12.67666549      2.22918703
H      12.87104836    -12.91912880      2.66215265
C      11.58111849    -12.52182250      4.26737132
H      10.57744600    -12.31686593      4.60232466
H      12.33651963    -12.55889604      5.03517427
    6
energy=   -164.79108881
C      10.49465103    -12.36213967      4.09046351
H       9.94934888    -12.37512889      3.17635632
H      19.22005340    -14.58413551     -2.68813667
C      10.28727991    -12.18366312      5.34892523
H       9.30829910    -11.97068529      5.78861206
H      11.08566895    -12.23202531      6.07694732
