    5
energy=   -113.61352447
C      13.20287326    -11.98525984     -8.62789683
H      12.63072432    -12.88655312     -8.45079565
H      12.91832045    -11.55877357     -9.58093143
H      13.00434623    -11.27116935     -7.83935550
H      14.25814079    -12.22463527     -8.64049221
    5
energy=   -107.66061291
C      13.64312821    -13.56880141    -10.37646406
H      12.97526611    -14.26274037     -9.91625116
H      13.27620054    -12.87360867    -11.09858459
H      11.44185050     -5.65103591     -1.63344969
H      14.67795973    -13.57020534    -10.11472229
