    5
energy=   -107.48954446
C       9.98802254    -11.42127342     13.64558742
H       1.78078161    -19.29866721     10.05177670
H       1.88486540    -18.53030257     10.00878759
H      10.12287399    -11.37850442     14.73651110
H      10.98546657    -11.58076267     13.20993024
    5
energy=   -113.61352447
C       6.95238762    -14.44191437     12.33051206
H       6.93379352    -15.51588943     12.46229761
H       6.06862625    -14.12940022     11.78973810
H       6.97180809    -13.95990760     13.29919222
H       7.83539479    -14.16239864     11.77085304
