    8
energy=   -194.31328154
C      13.85036513    -10.97611911     -8.17679825
H      13.42247478    -10.02195678     -8.51828420
H      13.94885613    -10.90494085     -7.08347224
C       9.04183731    -12.31573718     13.22945461
H       8.36824931    -13.15506418     12.96004761
H       8.61106331    -11.36256918     12.85975961
H       9.15133831    -12.26885918     14.33244261
H      10.03669832    -12.47645618     12.76556861
    8
energy=   -199.63288596
C      10.93362182    -11.48808629      4.57291875
H      10.78047534    -12.33789815      3.91130330
H      11.95644138    -11.13877618      4.44901664
C      10.67396869    -11.88215432      6.01930974
H       9.65124092    -12.23157025      6.14322537
H      10.26037101    -10.69056682      4.26624088
H      10.82758796    -11.03267483      6.68131669
H      11.34716747    -12.67997798      6.32541452
