    5
energy=   -113.56399954
C      13.21926584    -12.01275945     -8.58321971
H      12.54567784    -12.85208645     -8.85262671
H      12.78849184    -11.05959145     -8.95291471
H      13.32876684    -11.96588145     -7.48023171
H      14.21412684    -12.17347845     -9.04710571
    5
energy=   -107.66061289
C      11.06731497    -11.66511355     -7.57980322
H      10.71826696    -12.57632882     -8.01251252
H      10.96606412    -10.74704559     -8.11485892
H      11.51742749    -11.67193615     -6.61195133
H      21.82725575    -13.40337335    -12.59697239
