    5
energy=   -107.48954445
C      14.16531734    -11.11842183     -8.16714575
H      14.30016879    -11.07565283     -7.07622207
H      15.16276136    -11.27791108     -8.60280293
H      11.35708593    -12.08757740     22.91301546
H      11.73660136    -12.17656523     22.24136456
    5
energy=   -107.66061289
C      13.84150327    -11.41217993     -0.40210383
H      13.03703549    -11.04611917     -1.00064372
H      14.74619337    -11.73806369     -0.86553024
H      11.35599688    -12.08742317     22.91656678
H      13.74122629    -11.45241589      0.65984954
