    5
energy=   -113.61352447
C      13.20287327    -11.98525985     -8.62789677
H      12.63072440    -12.88655206     -8.45078966
H      12.91832370    -11.55878308     -9.58093658
H      13.00434233    -11.27116187     -7.83936334
H      14.25814117    -12.22463416     -8.64048587
    5
energy=   -107.49094684
C      10.51248100    -12.63851665     -5.25703117
H       9.92085997    -13.54364240     -5.05489024
H      17.34912770    -10.76071892    -14.39830927
H      10.29403496    -11.93019111     -4.44420567
H      17.93790133    -11.05332207    -13.98503607
