    5
energy=   -107.48954446
C       9.92770834    -11.47815680     13.61904347
H       2.20049140    -18.90283151     10.23648869
H       2.30457519    -18.13446687     10.19349958
H      10.06255979    -11.43538780     14.70996715
H      10.92515237    -11.63764605     13.18338629
    5
energy=   -107.66061291
C       8.85009287    -12.90954073     13.19978306
H       8.08855651    -13.57464331     12.85759772
H       0.01997262    -19.95029091      9.14316717
H       8.77917824    -12.47108122     14.17041457
H       9.68268712    -12.68293310     12.57142256
