    5
energy=   -107.48954444
C      13.89310152    -10.90573235     -8.14916064
H       7.93450140    -20.53821342    -11.89099892
H      13.46521117     -9.95157001     -8.49064659
H      13.99159252    -10.83455409     -7.05583463
H       8.64969311    -20.24732363    -11.97436364
    5
energy=   -113.61352447
C      11.58681111    -14.49549543     -9.51220784
H      10.56276113    -14.78388708     -9.31399671
H      11.60088324    -13.53705975    -10.01445469
H      12.12787070    -14.42106095     -8.57799007
H      12.05577372    -15.23989048    -10.14235527
