    7
energy=   -177.70267952
C      13.71701017    -13.16578991     -8.33637245
H      13.06893806    -14.00903857     -8.61755365
H      14.69448203    -13.34788141     -8.80703164
C       9.49943112    -11.74555060     13.41247298
H       8.83071962    -11.05828585     12.94356166
H       9.38208327    -11.98317660     14.44646964
H      10.28561480    -12.19503444     12.84743736
    7
energy=   -183.27775265
C      11.49224542    -12.69509104      3.41565339
H      10.65290250    -12.60152519      2.72901408
H      12.31482469    -12.08709539      3.01321439
C      11.12441364    -12.26570788      4.77315932
H      10.30709318    -11.59168632      4.93570856
H      11.84768617    -13.72734830      3.41269550
H      11.73911376    -12.53630359      5.60953664
