    3
energy=    -37.44747775
H       7.08052228    -19.77844185     -9.66103001
H       7.41619842    -19.39856438     -9.07274406
H       9.15025821    -12.26958351     14.33887655
    3
energy=    -37.44747585
H       8.08415462    -16.13264708      1.99520518
H       7.41492400    -19.41235598     -9.12367293
H       8.14790033    -15.90158673      2.73357024
