    8
energy=   -194.31328153
C      14.00858569    -11.01321816     -8.45681047
H      13.60327589    -10.06435043     -8.83825846
H      14.99225032    -11.14959340     -8.93002741
C       9.04183730    -12.31573719     13.22945461
H       8.36824930    -13.15506419     12.96004761
H       8.61106330    -11.36256919     12.85975961
H       9.15133830    -12.26885919     14.33244261
H      10.03669831    -12.47645619     12.76556861
    8
energy=   -193.98525954
C      11.48202420    -11.55170286      2.69874783
H      10.88002885    -10.96419073      2.03415041
H      12.27380261    -12.14313621      2.28315243
C      11.12695139    -11.67347985      4.12077859
H      10.42993735    -12.50707681      4.28885856
H      10.63370351    -10.77222127      4.48351684
H       8.97965384    -12.31918516     15.28151933
H      12.00719646    -11.87485580      4.73145242
