    5
energy=   -107.48954446
H       6.03485159    -18.95035731    -11.88950821
H       6.13893538    -18.18199267    -11.93249732
C       9.98788880    -11.42139955     13.64552856
H      10.12274025    -11.37863055     14.73645225
H      10.98533283    -11.58088880     13.20987138
    5
energy=   -113.61351627
H       8.59111845    -15.31882594      3.18663711
H       8.50733384    -13.61141118      2.73410722
C       8.65392560    -14.30269131      3.55383235
H       7.88852995    -14.14190792      4.30162528
H       9.62884103    -14.13843276      3.99364492
