    5
energy=   -107.48954442
C       9.67305061    -11.27890907     13.63594981
H       4.05367020    -20.35269586     10.11348480
H       9.24516026    -10.32474673     13.29446386
H       9.77154162    -11.20773081     14.72927581
H       4.76886190    -20.06180606     10.03012009
    5
energy=   -113.61352447
C       7.50244804    -14.64519430     12.36065186
H       6.47889709    -14.93682796     12.55668462
H       7.51459759    -13.68617545     11.85946914
H       8.04158586    -14.57017704     13.29593349
H       7.97475618    -15.38751402     11.73055494
