    5
energy=   -107.48954445
C      14.16545108    -11.11829570     -8.16708689
H       5.95821014    -18.99568949    -11.76089762
H       6.06229394    -18.22732485    -11.80388672
H      14.30030253    -11.07552670     -7.07616321
H      15.16289510    -11.27778495     -8.60274407
    5
energy=   -113.61352447
C      11.12981622    -14.13893674     -9.48216222
H      11.11122199    -15.21291179     -9.35037672
H      10.24605488    -13.82642245    -10.02293616
H      11.14923667    -13.65692988     -8.51348211
H      12.01282333    -13.85942095    -10.04182129
