    5
energy=   -113.61352447
C      13.16864784    -12.03335143     -8.57732203
H      12.14459785    -12.32174307     -8.37911090
H      13.18271997    -11.07491574     -9.07956888
H      13.70970743    -11.95891694     -7.64310425
H      13.63761045    -12.77774648     -9.20746946
    5
energy=   -107.49094678
C      11.23087173    -15.63874886    -10.08518557
H      10.19356067    -15.95382940     -9.89853389
H      16.25127344     -5.88817196     -6.40413582
H      16.48286574     -6.27665914     -5.77286057
H      11.68471201    -16.40926453    -10.72585978
