    5
energy=   -107.48954442
C       8.67785641    -12.35089876     12.05843941
H       7.99342399    -13.16573811     11.77966035
H       8.22999384    -11.41933850     11.68195134
H      11.39652115    -12.08333727     22.98715826
H      11.77603658    -12.17232510     22.31550736
    5
energy=   -113.61352450
C       9.61477049    -12.23832738     16.16455589
H       9.30490566    -13.12106933     15.62066959
H       9.53919662    -11.37246095     15.51986543
H       8.97515649    -12.10287962     17.02692037
H      10.63980299    -12.35690053     16.49070539
