    5
energy=   -113.61352366
H       6.93940190    -18.50535180     -7.80890715
H       5.77747630    -17.19708993     -8.05622068
C       6.41258665    -17.68969110     -7.33146622
H       5.80502672    -18.07630855     -6.52358808
H       7.12772811    -16.97982597     -6.93711159
    5
energy=   -107.49094690
H       6.04540585    -19.83898581    -14.20413838
H       5.53479559    -19.26406737    -14.31281989
C       6.78959350    -16.56170762     -3.13465174
H       6.18564340    -16.93935051     -2.29634444
H       7.50678140    -15.84415635     -2.70933929
