    6
energy=   -161.49856408
C      13.55883954    -13.12886656     -8.05627016
H      12.88818669    -13.96682050     -8.29748893
H      13.65113781    -13.10340521     -6.96038636
C       8.71145275    -12.34516452     11.90357722
H       8.02702033    -13.16000388     11.62479816
H       8.26359019    -11.41360426     11.52708914
    6
energy=   -167.58383667
C      10.29846473    -12.93815757      1.00953660
H      11.09038617    -13.27448776      0.31490664
H      11.92819172    -12.49462330      2.43069758
C      10.85751198    -12.69828321      2.32789065
H      10.66388626    -13.70494383      2.73462322
H      10.26177878    -12.00733296      2.92366335
