    8
energy=   -193.98419149
C      11.95129744    -12.69666707      0.95868385
H      11.22726705    -13.31156545      0.43000342
H      12.83796092    -10.97976686     -9.39994941
H      11.88661181    -11.67131461      0.58271764
H      12.95644903    -13.04908128      0.69317671
C      11.73941174    -12.74218926      2.41325044
H      11.06074066    -13.44329665      2.85536451
H      12.30839498    -12.10208437      3.05862640
    8
energy=   -193.98419777
C      10.74188934    -11.70875827     -1.00732537
H       9.94139908    -12.29062689     -1.45754546
H      11.67626384    -11.95527851     -1.52876453
H      10.56395660    -10.64732737     -1.20281161
H      20.34822243    -17.26357306      4.41730456
C      10.85415636    -11.97032205      0.43562830
H      10.31403323    -12.77006789      0.90045113
H      11.52821132    -11.39001127      1.03493841
