    8
energy=   -199.63288596
C      11.24606597    -11.11061153      2.41054686
H      11.09291949    -11.96042339      1.74893141
H      12.26888553    -10.76130142      2.28664475
C      10.98641284    -11.50467955      3.85693785
H       9.96368508    -11.85409549      3.98085348
H      10.57281516    -10.31309206      2.10386900
H      11.14003211    -10.65520007      4.51894480
H      11.65961162    -12.30250322      4.16304263
    8
energy=   -193.98526726
C      10.03820980    -11.64709618      3.12990623
H      10.27109330    -12.40378413      2.40704420
H      19.03591432     -7.56037573     -2.65280937
C       9.98528431    -11.97300975      4.56310533
H       8.99275840    -12.34824604      4.85146292
H       9.72780918    -10.68305803      2.77830162
H      10.17763480    -11.09234173      5.17563210
H      10.70172402    -12.75399479      4.81712691
