    5
energy=   -107.48954445
C      14.10529742    -11.17502766     -8.19356020
H      14.24014887    -11.13225865     -7.10263651
H      15.10274144    -11.33451691     -8.62921738
H       1.78171226    -19.29778950     10.05218628
H       1.88579605    -18.52942485     10.00919717
    5
energy=   -113.61352314
C       9.42326350    -14.29377391     -0.77272952
H      10.17012407    -13.51309266     -0.71221362
H       9.36436915    -14.65933586     -1.78970423
H       9.69652313    -15.10661913     -0.11285148
H       8.46136560    -13.89622223     -0.47635979
