    9
energy=   -210.51739713
C      12.50002390    -11.82583516     -8.61950646
H      12.26935013    -12.85221439     -8.43861575
H      12.57024800    -11.46305879     -9.62092945
H      12.66024436    -11.16218027     -7.79897145
C       9.04183731    -12.31573718     13.22945461
H       8.36824931    -13.15506418     12.96004761
H       8.61106331    -11.36256918     12.85975961
H       9.15133831    -12.26885918     14.33244261
H      10.03669832    -12.47645618     12.76556861
    9
energy=   -210.34010275
C      10.81361868    -12.03792039      1.44666615
H      11.16904210    -13.01622274      1.13069540
H       9.93658007    -11.78539541      0.85484867
H      11.59088274    -11.30716735      1.23452083
C      10.47510307    -12.04436059      2.92994126
H       9.69741374    -12.77468485      3.14198687
H      10.12018778    -11.06592279      3.24601667
H      11.35202575    -12.29744206      3.52172769
H      10.05419634    -12.55286924     14.16284978
