    5
energy=   -113.56399954
C       9.04183731    -12.31573718     13.22945461
H       8.36824931    -13.15506418     12.96004761
H       8.61106331    -11.36256918     12.85975961
H       9.15133831    -12.26885918     14.33244261
H      10.03669832    -12.47645618     12.76556861
    5
energy=   -107.49094679
C       7.94786501     -8.91046294     15.72640374
H      10.48989959    -18.08176377      9.14979338
H       7.51997466     -7.95630060     15.38491779
H       8.04635601     -8.83928467     16.81972975
H      11.20509129    -17.79087397      9.06642866
