    5
energy=   -107.48954444
C      13.85036513    -10.97611911     -8.17679825
H       8.23189210    -20.04841143    -11.69867644
H      13.42247478    -10.02195678     -8.51828420
H      13.94885613    -10.90494085     -7.08347224
H       8.94708380    -19.75752164    -11.78204116
    5
energy=   -113.61352447
C      11.68012548    -14.34180652     -9.45186156
H      10.65657601    -14.63344947     -9.25583459
H      11.69226990    -13.38278601     -9.95304113
H      12.21925756    -14.26678749     -8.51657680
H      12.15244312    -15.08412010    -10.08195864
