    5
energy=   -113.56399954
C       9.04183730    -12.31573719     13.22945461
H       8.36824930    -13.15506419     12.96004761
H       8.61106330    -11.36256919     12.85975961
H       9.15133830    -12.26885919     14.33244261
H      10.03669831    -12.47645619     12.76556861
    5
energy=   -107.49094679
C       7.94786500     -8.91046295     15.72640374
H      10.48989958    -18.08176378      9.14979338
H       7.51997465     -7.95630061     15.38491779
H       8.04635600     -8.83928468     16.81972975
H      11.20509128    -17.79087398      9.06642866
