    5
energy=   -107.48954442
H       5.95914080    -18.99481178    -11.76048804
H       6.06322459    -18.22644713    -11.80347715
C       8.72979660    -12.34356138     11.97664430
H       8.04536418    -13.15840073     11.69786524
H       8.28193404    -11.41200112     11.60015622
    5
energy=   -113.61352366
H       7.94284725    -15.64274191      1.86469012
H       6.78092165    -14.33448005      1.61737659
C       7.41603199    -14.82708122      2.34213104
H       6.80847207    -15.21369867      3.15000919
H       8.13117346    -14.11721609      2.73648568
