    5
energy=   -107.48954441
C      13.71699889    -13.16576378     -8.33637800
H      13.06892678    -14.00901244     -8.61755921
H       9.34473869     -3.06359236    -10.59620676
H       9.57633111     -3.45207951     -9.96493154
H      14.69447075    -13.34785527     -8.80703719
    5
energy=   -113.61352447
C      12.08028548     -9.40764222     -9.26442506
H      11.50813655    -10.30893551     -9.08732388
H      11.79573268     -8.98115596    -10.21745967
H      11.88175846     -8.69355174     -8.47588374
H      13.13555302     -9.64701765     -9.27702045
