    5
energy=   -113.56399954
C      13.21926585    -12.01275946     -8.58321970
H      12.54567785    -12.85208646     -8.85262670
H      12.78849185    -11.05959146     -8.95291470
H      13.32876685    -11.96588146     -7.48023170
H      14.21412685    -12.17347846     -9.04710570
    5
energy=   -107.66061287
C      12.98240905    -12.11415910    -10.96904474
H      12.33223836    -12.95476796    -10.86885546
H      12.58003527    -11.12548637    -10.97120178
H      14.16671780    -11.60714990      0.96032909
H      14.03492880    -12.26223356    -11.06732608
