    5
energy=   -113.61352451
H       8.11041142    -19.65818235     -7.28689482
H       8.82258695    -18.14899277     -7.86840892
C       8.52141420    -18.70255167     -6.98867346
H       7.77143541    -18.14024349     -6.44794135
H       9.38121208    -18.86280939     -6.35139090
    5
energy=   -107.49094680
H       9.68926069    -23.58142617     -6.09424098
H       6.16654904    -12.27521590     -9.25412297
C      10.08806057    -22.59778119     -5.80522491
H       5.70461391    -12.27137057     -8.62988995
H      10.95857585    -22.78698594     -5.15983062
