    5
energy=   -113.61352447
C      13.21189507    -12.06714159     -8.58017939
H      13.19284373    -13.14114001     -8.44864921
H      12.32829488    -11.75412939     -9.12092841
H      13.23146406    -11.58537300     -7.61138373
H      14.09505075    -11.78786412     -9.13972307
    5
energy=   -107.49094686
C      16.36302692     -9.41056195     -7.15160765
H       8.20078062    -16.75667163    -10.79038536
H       7.82087844    -16.14718801    -11.08579993
H      16.40613517     -8.90948429     -6.17324574
H      17.26872739     -9.11174206     -7.69982522
