    5
energy=   -113.61352447
C      13.21189514    -12.06714172     -8.58017935
H      13.19330091    -13.14111676     -8.44839386
H      12.32813380    -11.75462742     -9.12095330
H      13.23131559    -11.58513485     -7.61149924
H      14.09490225    -11.78762592     -9.13983843
    5
energy=   -107.66061289
C      13.16887476    -13.13600521    -10.72831359
H      13.15613987    -14.09153371    -10.25271934
H      12.25104046    -12.64105089    -10.95632067
H      13.38405295     -7.79152352      0.01259571
H      14.09943977    -12.67553340    -10.97610647
