    5
energy=   -107.48954452
C      13.39608153    -10.80044985     -8.64393023
H      11.85058043    -21.91493045     -8.04464579
H      11.47067826    -21.30544683     -8.34006037
H      13.43918978    -10.29937219     -7.66556832
H      14.30178200    -10.50162995     -9.19214780
    5
energy=   -113.61352447
C      12.89165833    -14.96438555     -8.37727015
H      13.51859541    -15.72042118     -7.92285204
H      12.01706576    -15.43289428     -8.80938476
H      12.58370313    -14.25081872     -7.62425300
H      13.44728960    -14.45330963     -9.15259210
