    8
energy=   -194.32401007
C      10.55986227    -12.50908022      1.06185575
H      11.35178371    -12.84541041      0.36722579
H      12.18958926    -12.06554595      2.48301674
C      11.11890952    -12.26920586      2.38020981
H      10.92528381    -13.27586648      2.78694237
H      10.52317633    -11.57825561      2.97598251
H      11.50351921    -12.07470450     23.49763505
H      11.88303464    -12.16369233     22.82598415
    8
energy=   -199.63288727
C      11.28337591    -12.49443361      8.04334123
H      11.70130582    -13.48218600      8.22466152
H      12.22796456    -12.23365353      6.11900081
C      11.23037661    -12.20095830      6.55139966
H      10.61167541    -12.93410159      6.03864836
H      10.81154175    -11.21361227      6.36990045
H      10.28589707    -12.46085525      8.47592968
H      11.90303162    -11.76196729      8.55596237
