    5
energy=   -113.61352447
C       8.99121927    -12.33632913     13.23535226
H       7.96766981    -12.62797207     13.43137922
H       9.00336370    -11.37730861     12.73417268
H       9.53035135    -12.26131010     14.17063702
H       9.46353692    -13.07864271     12.60525517
    5
energy=   -107.49094684
C      10.68230108    -11.58003037      9.28618192
H       5.85666193    -13.66521057     19.59123224
H      10.70709545    -10.61647261      8.75602087
H       6.54337025    -13.50408391     19.91609467
H      11.16671237    -12.31576508      8.62726675
