    9
energy=   -210.34010275
C      10.66087804    -12.36981841      1.44782233
H      11.01630146    -13.34812075      1.13185159
H       9.78383942    -12.11729342      0.85600486
H      11.43814209    -11.63906537      1.23567702
C      10.32236242    -12.37625861      2.93109744
H       9.54467309    -13.10658286      3.14314306
H       9.96744713    -11.39782081      3.24717285
H      11.19928510    -12.62934008      3.52288388
H      10.02097544    -12.46133450     13.73460052
    9
energy=   -210.34010235
C      10.40517955    -11.45088149      5.23992929
H      12.81978059    -16.38189082     -6.12560652
H       9.72158459    -10.63012797      5.44549360
H      11.37537297    -11.03126158      4.98361482
C       9.87828754    -12.31510420      4.10397139
H       8.90832997    -12.73529806      4.36068850
H       9.76645729    -11.72716039      3.19562089
H      10.56237245    -13.13540029      3.89805935
H      10.51654629    -12.03850546      6.14847236
